Circuit: * D:\Users\farshid\Dropbox\Ubicomp-projects\mag-fingers\PCB_Design\TX_v5\filter.asc

Limiting rise time of source v1 to 5e-007
Limiting fall time of source v1 to 5e-007
Instance "m:u2:6": Length shorter than recommended for a level 2 MOSFET.
Instance "m:u2:5": Length shorter than recommended for a level 2 MOSFET.
Instance "m:u2:4": Length shorter than recommended for a level 2 MOSFET.
Instance "m:u2:3": Length shorter than recommended for a level 2 MOSFET.
Instance "m:u2:2": Length shorter than recommended for a level 2 MOSFET.
Instance "m:u2:1": Length shorter than recommended for a level 2 MOSFET.
Instance "m:u1:6": Length shorter than recommended for a level 2 MOSFET.
Instance "m:u1:5": Length shorter than recommended for a level 2 MOSFET.
Instance "m:u1:4": Length shorter than recommended for a level 2 MOSFET.
Instance "m:u1:3": Length shorter than recommended for a level 2 MOSFET.
Instance "m:u1:2": Length shorter than recommended for a level 2 MOSFET.
Instance "m:u1:1": Length shorter than recommended for a level 2 MOSFET.
Direct Newton iteration for .op point succeeded.

Date: Thu Dec 13 18:50:18 2018
Total elapsed time: 0.096 seconds.

tnom = 27
temp = 27
method = trap
totiter = 31
traniter = 0
tranpoints = 0
accept = 0
rejected = 0
matrix size = 96
fillins = 50
solver = Normal
Matrix Compiler1:     490 opcodes
Matrix Compiler2: 9.66 KB object code size
